** 
*Material, name=Aluminum
*Density
 2.85e-06,
*ELASTIC, DEPENDENCIES=1
71000., 0.33, 0., 0.00
710., 0.33, 0., 0.99
*USER DEFINED FIELD
*Depvar
**Depvar, delete=2
7
** ----------------------------------------------------------------
** 
