** 
*Material, name=Aluminum
*Density
 2.85e-06,
*ELASTIC, DEPENDENCIES=1
70000., 0.3, 0., 0.00
700., 0.3, 0., 0.99
*USER DEFINED FIELD
*Depvar
**Depvar, delete=2
7
** ----------------------------------------------------------------
** 
